
OS:Version,
  {78075e36-fb1e-4caf-a625-ed0a9ad7d044}, !- Handle
  1.10.0;                                 !- Version Identifier

OS:Material,
  {6e0e0e54-ec24-407c-8744-7b528d64a69a}, !- Handle
  Fábrica de BH hueco con áridos densos [e 190 mm], !- Name
  Rough,                                  !- Roughness
  0.19,                                   !- Thickness {m}
  0.864,                                  !- Conductivity {W/m-K}
  1100,                                   !- Density {kg/m3}
  1000,                                   !- Specific Heat {J/kg-K}
  0.6,                                    !- Thermal Absorptance
  0.6,                                    !- Solar Absorptance
  0.6;                                    !- Visible Absorptance

OS:Material,
  {913282db-0d9e-4399-bfeb-f92bedcf838c}, !- Handle
  Tablero de partículas [180 < d < 270], !- Name
  Rough,                                  !- Roughness
  0.02,                                   !- Thickness {m}
  0.1,                                    !- Conductivity {W/m-K}
  225,                                    !- Density {kg/m3}
  1700,                                   !- Specific Heat {J/kg-K}
  0.6,                                    !- Thermal Absorptance
  0.6,                                    !- Solar Absorptance
  0.6;                                    !- Visible Absorptance

OS:Material,
  {b3b89e7a-e3da-499e-a407-7e911d687429}, !- Handle
  Poliamida (nylon) (PA),                 !- Name
  Rough,                                  !- Roughness
  0.02,                                   !- Thickness {m}
  0.25,                                   !- Conductivity {W/m-K}
  1150,                                   !- Density {kg/m3}
  1600,                                   !- Specific Heat {J/kg-K}
  0.6,                                    !- Thermal Absorptance
  0.6,                                    !- Solar Absorptance
  0.6;                                    !- Visible Absorptance

OS:Material,
  {97c544ed-3694-443e-833b-3ccbaaba8743}, !- Handle
  Fábrica de BH macizo con áridos ligeros [e 240 mm], !- Name
  Rough,                                  !- Roughness
  0.24,                                   !- Thickness {m}
  0.264,                                  !- Conductivity {W/m-K}
  900,                                    !- Density {kg/m3}
  1000,                                   !- Specific Heat {J/kg-K}
  0.6,                                    !- Thermal Absorptance
  0.6,                                    !- Solar Absorptance
  0.6;                                    !- Visible Absorptance

OS:Material,
  {54129c22-1035-4037-a8a2-c79c1942f554}, !- Handle
  Paneles de fibras con conglomerante hidráulico [350 < d < 450], !- Name
  Rough,                                  !- Roughness
  0.02,                                   !- Thickness {m}
  0.12,                                   !- Conductivity {W/m-K}
  400,                                    !- Density {kg/m3}
  1700,                                   !- Specific Heat {J/kg-K}
  0.6,                                    !- Thermal Absorptance
  0.6,                                    !- Solar Absorptance
  0.6;                                    !- Visible Absorptance

OS:Material,
  {749f2eb0-4694-4698-a4f7-b8d29208ae1f}, !- Handle
  Acero,                                  !- Name
  Smooth,                                 !- Roughness
  0.02,                                   !- Thickness {m}
  50,                                     !- Conductivity {W/m-K}
  7800,                                   !- Density {kg/m3}
  450,                                    !- Specific Heat {J/kg-K}
  0.6,                                    !- Thermal Absorptance
  0.6,                                    !- Solar Absorptance
  0.6;                                    !- Visible Absorptance

OS:Material,
  {68348868-b179-4ab4-ba02-459208af5c42}, !- Handle
  Losa maciza de hormigón [d 2500 / h 300 mm], !- Name
  Rough,                                  !- Roughness
  0.3,                                    !- Thickness {m}
  2.5,                                    !- Conductivity {W/m-K}
  2500,                                   !- Density {kg/m3}
  1000,                                   !- Specific Heat {J/kg-K}
  0.6,                                    !- Thermal Absorptance
  0.6,                                    !- Solar Absorptance
  0.6;                                    !- Visible Absorptance

OS:Material,
  {860f3013-074c-44db-a0c5-a1de86917800}, !- Handle
  FR entrevigado de hormigón áridos ligeros [h 250 mm], !- Name
  Rough,                                  !- Roughness
  0.25,                                   !- Thickness {m}
  1.786,                                  !- Conductivity {W/m-K}
  1292,                                   !- Density {kg/m3}
  1000,                                   !- Specific Heat {J/kg-K}
  0.6,                                    !- Thermal Absorptance
  0.6,                                    !- Solar Absorptance
  0.6;                                    !- Visible Absorptance

OS:Material,
  {80323782-8b26-40fd-ab49-33cc4339fa28}, !- Handle
  Fábrica de BC con mortero convencional [e 140 mm], !- Name
  Rough,                                  !- Roughness
  0.14,                                   !- Thickness {m}
  0.438,                                  !- Conductivity {W/m-K}
  1170,                                   !- Density {kg/m3}
  1000,                                   !- Specific Heat {J/kg-K}
  0.6,                                    !- Thermal Absorptance
  0.6,                                    !- Solar Absorptance
  0.6;                                    !- Visible Absorptance

OS:Material,
  {7ecdebc2-5f19-49ce-b01b-f22abb835da7}, !- Handle
  Hormigón con otros áridos ligeros [d 1100], !- Name
  Rough,                                  !- Roughness
  0.02,                                   !- Thickness {m}
  0.34,                                   !- Conductivity {W/m-K}
  1100,                                   !- Density {kg/m3}
  1000,                                   !- Specific Heat {J/kg-K}
  0.6,                                    !- Thermal Absorptance
  0.6,                                    !- Solar Absorptance
  0.6;                                    !- Visible Absorptance

OS:Material,
  {c5f75013-da77-49a6-9e6b-04074f353984}, !- Handle
  Asfalto arenoso,                        !- Name
  Rough,                                  !- Roughness
  0.02,                                   !- Thickness {m}
  0.15,                                   !- Conductivity {W/m-K}
  2100,                                   !- Density {kg/m3}
  1000,                                   !- Specific Heat {J/kg-K}
  0.6,                                    !- Thermal Absorptance
  0.6,                                    !- Solar Absorptance
  0.6;                                    !- Visible Absorptance

OS:Material,
  {91e95148-9e6e-464e-b8b8-5f325e1bd0d2}, !- Handle
  Granito [2500 < d < 2700],              !- Name
  Rough,                                  !- Roughness
  0.02,                                   !- Thickness {m}
  2.8,                                    !- Conductivity {W/m-K}
  2600,                                   !- Density {kg/m3}
  1000,                                   !- Specific Heat {J/kg-K}
  0.6,                                    !- Thermal Absorptance
  0.6,                                    !- Solar Absorptance
  0.6;                                    !- Visible Absorptance

OS:Material,
  {ce4d1f70-665b-48bc-b7be-a4a3dd6543c1}, !- Handle
  Fábrica de ladrillo cerámico perforado de medio pie [40 mm <= G <= 60 mm], !- Name
  Rough,                                  !- Roughness
  0.1225,                                 !- Thickness {m}
  0.68,                                   !- Conductivity {W/m-K}
  1140,                                   !- Density {kg/m3}
  1000,                                   !- Specific Heat {J/kg-K}
  0.6,                                    !- Thermal Absorptance
  0.6,                                    !- Solar Absorptance
  0.6;                                    !- Visible Absorptance

OS:Material,
  {09df0160-a298-42eb-a2c0-bc7bcd4e3f78}, !- Handle
  Silex,                                  !- Name
  Rough,                                  !- Roughness
  0.02,                                   !- Thickness {m}
  2.6,                                    !- Conductivity {W/m-K}
  2700,                                   !- Density {kg/m3}
  1000,                                   !- Specific Heat {J/kg-K}
  0.6,                                    !- Thermal Absorptance
  0.6,                                    !- Solar Absorptance
  0.6;                                    !- Visible Absorptance

OS:Material,
  {57140b05-d2bd-4244-8e9f-d22c851b51ec}, !- Handle
  FR entrevigado de hormigón [h 400 mm], !- Name
  Rough,                                  !- Roughness
  0.4,                                    !- Thickness {m}
  2,                                      !- Conductivity {W/m-K}
  1208,                                   !- Density {kg/m3}
  1000,                                   !- Specific Heat {J/kg-K}
  0.6,                                    !- Thermal Absorptance
  0.6,                                    !- Solar Absorptance
  0.6;                                    !- Visible Absorptance

OS:Material,
  {6af8e98a-880b-4be3-8c8c-aea2b4e6e8b0}, !- Handle
  Placa de yeso laminado (PYL) [750 < d < 900], !- Name
  Rough,                                  !- Roughness
  0.02,                                   !- Thickness {m}
  0.25,                                   !- Conductivity {W/m-K}
  825,                                    !- Density {kg/m3}
  1000,                                   !- Specific Heat {J/kg-K}
  0.6,                                    !- Thermal Absorptance
  0.6,                                    !- Solar Absorptance
  0.6;                                    !- Visible Absorptance

OS:Material,
  {4c5e05b1-55eb-4be6-bf09-b9617f60c67c}, !- Handle
  Teja de plástico,                      !- Name
  Rough,                                  !- Roughness
  0.02,                                   !- Thickness {m}
  0.2,                                    !- Conductivity {W/m-K}
  1000,                                   !- Density {kg/m3}
  1000,                                   !- Specific Heat {J/kg-K}
  0.6,                                    !- Thermal Absorptance
  0.6,                                    !- Solar Absorptance
  0.6;                                    !- Visible Absorptance

OS:Material,
  {1c0702dd-505e-4d09-a3fe-e071f66bdef6}, !- Handle
  Mortero de cemento o cal para albañilería y para revoco o enlucido [750 < d < 1000], !- Name
  Rough,                                  !- Roughness
  0.02,                                   !- Thickness {m}
  0.4,                                    !- Conductivity {W/m-K}
  875,                                    !- Density {kg/m3}
  1000,                                   !- Specific Heat {J/kg-K}
  0.6,                                    !- Thermal Absorptance
  0.6,                                    !- Solar Absorptance
  0.6;                                    !- Visible Absorptance

OS:Material,
  {6a6cc04d-b4ba-4d74-8fcc-8656b7062505}, !- Handle
  Corcho Expandido con resinas sintéticas [150 < d < 250], !- Name
  Rough,                                  !- Roughness
  0.02,                                   !- Thickness {m}
  0.055,                                  !- Conductivity {W/m-K}
  200,                                    !- Density {kg/m3}
  1560,                                   !- Specific Heat {J/kg-K}
  0.6,                                    !- Thermal Absorptance
  0.6,                                    !- Solar Absorptance
  0.6;                                    !- Visible Absorptance

OS:Material,
  {d47ded92-bd0c-4b6b-84a8-f274164d739b}, !- Handle
  Fábrica de ladrillo cerámico perforado de medio pie [80 mm < G <= 100 mm], !- Name
  Rough,                                  !- Roughness
  0.1225,                                 !- Thickness {m}
  0.533,                                  !- Conductivity {W/m-K}
  900,                                    !- Density {kg/m3}
  1000,                                   !- Specific Heat {J/kg-K}
  0.6,                                    !- Thermal Absorptance
  0.6,                                    !- Solar Absorptance
  0.6;                                    !- Visible Absorptance

OS:Material,
  {c4393095-6e7c-4d07-af85-6d1036885d31}, !- Handle
  Mortero de cemento o cal para albañilería y para revoco o enlucido [d > 2000], !- Name
  Rough,                                  !- Roughness
  0.02,                                   !- Thickness {m}
  1.8,                                    !- Conductivity {W/m-K}
  2100,                                   !- Density {kg/m3}
  1000,                                   !- Specific Heat {J/kg-K}
  0.6,                                    !- Thermal Absorptance
  0.6,                                    !- Solar Absorptance
  0.6;                                    !- Visible Absorptance

OS:Material,
  {bbbec662-5630-4dd3-8de0-6585cf2fb757}, !- Handle
  Losa alveolar sin capa de compresión [h 400 mm], !- Name
  Rough,                                  !- Roughness
  0.4,                                    !- Thickness {m}
  1.818,                                  !- Conductivity {W/m-K}
  1180,                                   !- Density {kg/m3}
  1000,                                   !- Specific Heat {J/kg-K}
  0.6,                                    !- Thermal Absorptance
  0.6,                                    !- Solar Absorptance
  0.6;                                    !- Visible Absorptance

OS:WindowMaterial:SimpleGlazingSystem,
  {4a79f994-4515-4ba2-a27c-9b684f0d61ee}, !- Handle
  Vidrio sencillo 12mm,                   !- Name
  5.5,                                    !- U-Factor {W/m2-K}
  0.76;                                   !- Solar Heat Gain Coefficient

OS:Material,
  {8ed30b5d-dfce-4de8-bde7-7571e0081286}, !- Handle
  MW Lana mineral [0.04 W/[mK]],          !- Name
  Rough,                                  !- Roughness
  0.02,                                   !- Thickness {m}
  0.04,                                   !- Conductivity {W/m-K}
  40,                                     !- Density {kg/m3}
  1000,                                   !- Specific Heat {J/kg-K}
  0.6,                                    !- Thermal Absorptance
  0.6,                                    !- Solar Absorptance
  0.6;                                    !- Visible Absorptance

OS:Material,
  {b91014d5-6ee7-462f-946a-553516339585}, !- Handle
  Asfalto,                                !- Name
  Rough,                                  !- Roughness
  0.02,                                   !- Thickness {m}
  0.7,                                    !- Conductivity {W/m-K}
  2100,                                   !- Density {kg/m3}
  1000,                                   !- Specific Heat {J/kg-K}
  0.6,                                    !- Thermal Absorptance
  0.6,                                    !- Solar Absorptance
  0.6;                                    !- Visible Absorptance

OS:Material,
  {7b468cea-bbd0-483f-9caa-8f3c49f7f69c}, !- Handle
  FR entrevigado de EPS moldeado enrasado [h 400 mm], !- Name
  Rough,                                  !- Roughness
  0.4,                                    !- Thickness {m}
  1.379,                                  !- Conductivity {W/m-K}
  1062,                                   !- Density {kg/m3}
  1000,                                   !- Specific Heat {J/kg-K}
  0.6,                                    !- Thermal Absorptance
  0.6,                                    !- Solar Absorptance
  0.6;                                    !- Visible Absorptance

OS:Material,
  {45a80326-ce1b-416f-a6e2-da0631e7dd09}, !- Handle
  Fábrica de ladrillo macizo de hormigón, !- Name
  Rough,                                  !- Roughness
  0.12,                                   !- Thickness {m}
  1.714,                                  !- Conductivity {W/m-K}
  1800,                                   !- Density {kg/m3}
  1000,                                   !- Specific Heat {J/kg-K}
  0.6,                                    !- Thermal Absorptance
  0.6,                                    !- Solar Absorptance
  0.6;                                    !- Visible Absorptance

OS:Material,
  {d407e572-fb0f-48fc-afc1-f6f82d6a5a50}, !- Handle
  Mortero de áridos ligeros (vermiculita o perlita), !- Name
  Rough,                                  !- Roughness
  0.02,                                   !- Thickness {m}
  0.41,                                   !- Conductivity {W/m-K}
  1000,                                   !- Density {kg/m3}
  1000,                                   !- Specific Heat {J/kg-K}
  0.6,                                    !- Thermal Absorptance
  0.6,                                    !- Solar Absorptance
  0.6;                                    !- Visible Absorptance

OS:WindowProperty:FrameAndDivider,
  {9dc8d93b-45e2-425a-a6f3-e75e232a4d13}, !- Handle
  Marco metálico [H 100 mm] con RPT [4 < d < 12 mm], !- Name
  0.1,                                    !- Frame Width {m}
  0.01,                                   !- Frame Outside Projection {m}
  0.01,                                   !- Frame Inside Projection {m}
  12.5,                                   !- Frame Conductance {W/m2-K}
  1,                                      !- Ratio of Frame-Edge Glass Conductance to Center-Of-Glass Conductance
  0.6,                                    !- Frame Solar Absorptance
  0.6,                                    !- Frame Visible Absorptance
  0.9,                                    !- Frame Thermal Hemispherical Emissivity
  DividedLite,                            !- Divider Type
  0,                                      !- Divider Width {m}
  0,                                      !- Number of Horizontal Dividers
  0,                                      !- Number of Vertical Dividers
  0,                                      !- Divider Outside Projection {m}
  0,                                      !- Divider Inside Projection {m}
  0,                                      !- Divider Conductance {W/m2-K}
  1,                                      !- Ratio of Divider-Edge Glass Conductance to Center-Of-Glass Conductance
  0,                                      !- Divider Solar Absorptance
  0,                                      !- Divider Visible Absorptance
  0.9,                                    !- Divider Thermal Hemispherical Emissivity
  ,                                       !- Outside Reveal Depth {m}
  0.6,                                    !- Outside Reveal Solar Absorptance
  0.2,                                    !- Inside Sill Depth {m}
  0.6,                                    !- Inside Sill Solar Absorptance
  0.05,                                   !- Inside Reveal Depth {m}
  0.6;                                    !- Inside Reveal Solar Absorptance

OS:WindowMaterial:SimpleGlazingSystem,
  {9a1ad60a-a74b-4d43-b592-71a7525c7426}, !- Handle
  Vidrio aislante con vidrio laminar 4-15-(3+3...10+10), !- Name
  2.7,                                    !- U-Factor {W/m2-K}
  0.73;                                   !- Solar Heat Gain Coefficient

OS:Material,
  {5ed83318-6970-4e18-98e3-cb305e2c16b8}, !- Handle
  FR entrevigado de EPS moldeado enrasado [h 250 mm], !- Name
  Rough,                                  !- Roughness
  0.25,                                   !- Thickness {m}
  1.25,                                   !- Conductivity {W/m-K}
  1280,                                   !- Density {kg/m3}
  1000,                                   !- Specific Heat {J/kg-K}
  0.6,                                    !- Thermal Absorptance
  0.6,                                    !- Solar Absorptance
  0.6;                                    !- Visible Absorptance

OS:Material,
  {e42ae306-56d9-435e-b90c-9c23b03fb956}, !- Handle
  FU entrevigado cerámico [h 300 mm],    !- Name
  Rough,                                  !- Roughness
  0.3,                                    !- Thickness {m}
  0.937,                                  !- Conductivity {W/m-K}
  1110,                                   !- Density {kg/m3}
  1000,                                   !- Specific Heat {J/kg-K}
  0.6,                                    !- Thermal Absorptance
  0.6,                                    !- Solar Absorptance
  0.6;                                    !- Visible Absorptance

OS:Material,
  {84b8c1ec-b354-4706-a94b-e7d341338ca3}, !- Handle
  Cloruro de polivinilo (PVC) + 40% plastificante, !- Name
  Rough,                                  !- Roughness
  0.02,                                   !- Thickness {m}
  0.14,                                   !- Conductivity {W/m-K}
  1200,                                   !- Density {kg/m3}
  1000,                                   !- Specific Heat {J/kg-K}
  0.6,                                    !- Thermal Absorptance
  0.6,                                    !- Solar Absorptance
  0.6;                                    !- Visible Absorptance

OS:WindowMaterial:SimpleGlazingSystem,
  {5a9740fa-415f-4f8f-98b9-aecdaceeaebd}, !- Handle
  Vidrio aislante con vidrio laminar 4-9-(3+3...10+10) BE [0.1 >= e > 0.03], !- Name
  2.1,                                    !- U-Factor {W/m2-K}
  0.55;                                   !- Solar Heat Gain Coefficient

OS:Material,
  {12ff74e1-a9ec-4504-8b90-d2bd016e673f}, !- Handle
  Poliuretano (PU),                       !- Name
  Rough,                                  !- Roughness
  0.02,                                   !- Thickness {m}
  0.25,                                   !- Conductivity {W/m-K}
  1200,                                   !- Density {kg/m3}
  1800,                                   !- Specific Heat {J/kg-K}
  0.6,                                    !- Thermal Absorptance
  0.6,                                    !- Solar Absorptance
  0.6;                                    !- Visible Absorptance

OS:Material,
  {58eafd16-bcfd-43da-ad61-a02eabc7b14b}, !- Handle
  Corcho Comprimido [d < 500],            !- Name
  Rough,                                  !- Roughness
  0.02,                                   !- Thickness {m}
  0.1,                                    !- Conductivity {W/m-K}
  500,                                    !- Density {kg/m3}
  1560,                                   !- Specific Heat {J/kg-K}
  0.6,                                    !- Thermal Absorptance
  0.6,                                    !- Solar Absorptance
  0.6;                                    !- Visible Absorptance

OS:Material,
  {01b261be-d7b5-4473-9354-1aa985021f1c}, !- Handle
  Losa alveolar con capa de compresión [h 350 mm], !- Name
  Rough,                                  !- Roughness
  0.35,                                   !- Thickness {m}
  1.667,                                  !- Conductivity {W/m-K}
  1440,                                   !- Density {kg/m3}
  1000,                                   !- Specific Heat {J/kg-K}
  0.6,                                    !- Thermal Absorptance
  0.6,                                    !- Solar Absorptance
  0.6;                                    !- Visible Absorptance

OS:Material,
  {0057e85c-bf20-4e42-a14a-4e340607a77c}, !- Handle
  Tablero de partículas [640 < d < 820], !- Name
  Rough,                                  !- Roughness
  0.02,                                   !- Thickness {m}
  0.18,                                   !- Conductivity {W/m-K}
  730,                                    !- Density {kg/m3}
  1700,                                   !- Specific Heat {J/kg-K}
  0.6,                                    !- Thermal Absorptance
  0.6,                                    !- Solar Absorptance
  0.6;                                    !- Visible Absorptance

OS:Material,
  {88512d7a-aa5d-4e58-acb8-8376c9db133a}, !- Handle
  Losa maciza de hormigón [d 2000 / h 250 mm], !- Name
  Rough,                                  !- Roughness
  0.25,                                   !- Thickness {m}
  1.667,                                  !- Conductivity {W/m-K}
  2000,                                   !- Density {kg/m3}
  1000,                                   !- Specific Heat {J/kg-K}
  0.6,                                    !- Thermal Absorptance
  0.6,                                    !- Solar Absorptance
  0.6;                                    !- Visible Absorptance

OS:Material,
  {6e797aa0-d991-4227-8f03-d0582f5ea81f}, !- Handle
  Losa maciza de hormigón [d 2500 / h 350 mm], !- Name
  Rough,                                  !- Roughness
  0.35,                                   !- Thickness {m}
  2.5,                                    !- Conductivity {W/m-K}
  2500,                                   !- Density {kg/m3}
  1000,                                   !- Specific Heat {J/kg-K}
  0.6,                                    !- Thermal Absorptance
  0.6,                                    !- Solar Absorptance
  0.6;                                    !- Visible Absorptance

OS:Material,
  {a4931fd4-11ea-44c2-b8f7-4cf030b6c002}, !- Handle
  Hormigón con arcilla expandida como árido principal [d 1400], !- Name
  Rough,                                  !- Roughness
  0.02,                                   !- Thickness {m}
  0.55,                                   !- Conductivity {W/m-K}
  1400,                                   !- Density {kg/m3}
  1000,                                   !- Specific Heat {J/kg-K}
  0.6,                                    !- Thermal Absorptance
  0.6,                                    !- Solar Absorptance
  0.6;                                    !- Visible Absorptance

OS:Material,
  {c34b9437-a241-4666-b6e8-54cc64efe68c}, !- Handle
  Hormigón con arcilla expandida sin otros áridos [d 500], !- Name
  Rough,                                  !- Roughness
  0.02,                                   !- Thickness {m}
  0.16,                                   !- Conductivity {W/m-K}
  500,                                    !- Density {kg/m3}
  1000,                                   !- Specific Heat {J/kg-K}
  0.6,                                    !- Thermal Absorptance
  0.6,                                    !- Solar Absorptance
  0.6;                                    !- Visible Absorptance

OS:Material,
  {cb73083f-7874-4ead-b3ea-02ca570452d9}, !- Handle
  Fieltro,                                !- Name
  Rough,                                  !- Roughness
  0.02,                                   !- Thickness {m}
  0.05,                                   !- Conductivity {W/m-K}
  120,                                    !- Density {kg/m3}
  1300,                                   !- Specific Heat {J/kg-K}
  0.6,                                    !- Thermal Absorptance
  0.6,                                    !- Solar Absorptance
  0.6;                                    !- Visible Absorptance

OS:Material,
  {3fd2568e-8185-4614-a852-efced341ca3e}, !- Handle
  Tablero contrachapado o paneles de madera sólida (SWP) o maderas chapadas laminares (LVL) [350 < d < 450], !- Name
  Rough,                                  !- Roughness
  0.02,                                   !- Thickness {m}
  0.13,                                   !- Conductivity {W/m-K}
  400,                                    !- Density {kg/m3}
  1600,                                   !- Specific Heat {J/kg-K}
  0.6,                                    !- Thermal Absorptance
  0.6,                                    !- Solar Absorptance
  0.6;                                    !- Visible Absorptance

OS:Material,
  {ed1e0620-c8e4-4944-a2bf-51092e5cd0ab}, !- Handle
  Fábrica de BC con mortero aislante [e 140 mm], !- Name
  Rough,                                  !- Roughness
  0.14,                                   !- Thickness {m}
  0.318,                                  !- Conductivity {W/m-K}
  1020,                                   !- Density {kg/m3}
  1000,                                   !- Specific Heat {J/kg-K}
  0.6,                                    !- Thermal Absorptance
  0.6,                                    !- Solar Absorptance
  0.6;                                    !- Visible Absorptance

OS:Material,
  {6c4100bd-f12e-4931-9189-a626d8740cc1}, !- Handle
  Losa maciza de hormigón [d 2500 / h 250 mm], !- Name
  Rough,                                  !- Roughness
  0.25,                                   !- Thickness {m}
  2.5,                                    !- Conductivity {W/m-K}
  2500,                                   !- Density {kg/m3}
  1000,                                   !- Specific Heat {J/kg-K}
  0.6,                                    !- Thermal Absorptance
  0.6,                                    !- Solar Absorptance
  0.6;                                    !- Visible Absorptance

OS:WindowProperty:FrameAndDivider,
  {304e0c85-b6ab-40fb-a20a-edc86fcdffb1}, !- Handle
  Marco metálico [H 100 mm],             !- Name
  0.1,                                    !- Frame Width {m}
  0.01,                                   !- Frame Outside Projection {m}
  0.01,                                   !- Frame Inside Projection {m}
  200,                                    !- Frame Conductance {W/m2-K}
  1,                                      !- Ratio of Frame-Edge Glass Conductance to Center-Of-Glass Conductance