
OS:Version,
  {9f40b0cb-f7a0-40e1-badc-b3068cdc4e8b}, !- Handle
  1.10.0;                                 !- Version Identifier

OS:ClimateZones,
  {489fd912-82d3-4bb2-8d56-0954ee0b7827}, !- Handle
  ,                                       !- Active Institution
  ,                                       !- Active Year
  ASHRAE,                                 !- Climate Zone Institution Name 1
  ANSI/ASHRAE Standard 169,               !- Climate Zone Document Name 1
  2006,                                   !- Climate Zone Document Year 1
  ,                                       !- Climate Zone Value 1
  CEC,                                    !- Climate Zone Institution Name 2
  California Climate Zone Descriptions,   !- Climate Zone Document Name 2
  1995,                                   !- Climate Zone Document Year 2
  ,                                       !- Climate Zone Value 2
  CTE,                                    !- Climate Zone Institution Name 3
  ,                                       !- Climate Zone Document Name 3
  0,                                      !- Climate Zone Document Year 3
  D3,                                     !- Climate Zone Value 3
  TasaVentilacionHS3,                     !- Climate Zone Institution Name 4
  ,                                       !- Climate Zone Document Name 4
  0,                                      !- Climate Zone Document Year 4
  0.63,                                   !- Climate Zone Value 4
  PermeabilidadHuecos,                    !- Climate Zone Institution Name 5
  ,                                       !- Climate Zone Document Name 5
  0,                                      !- Climate Zone Document Year 5
  27.0;                                   !- Climate Zone Value 5

OS:LifeCycleCost:Parameters,
  {21fcb158-9d80-48f7-a78f-fd539eacd6f4}, !- Handle
  FEMP,                                   !- Analysis Type
  ,                                       !- Discounting Convention
  ,                                       !- Inflation Approach
  ,                                       !- Real Discount Rate
  ,                                       !- Nominal Discount Rate
  ,                                       !- Inflation
  ,                                       !- Base Date Month
  ,                                       !- Base Date Year
  ,                                       !- Service Date Month
  ,                                       !- Service Date Year
  ,                                       !- Length of Study Period in Years
  ,                                       !- Tax Rate
  ,                                       !- Depreciation Method
  Yes;                                    !- Use NIST Fuel Escalation Rates

OS:YearDescription,
  {ef8f28bb-b775-44f8-9587-8bb34891db6c}, !- Handle
  ,                                       !- Calendar Year
  Monday;                                 !- Day of Week for Start Day

! {"edificioDeReferencia":false,"ficheroObjeto":"C:/OS1/CTE/plantillaComprobacionCTE.osm","extraPeninsular":false,"edificioHE1":false}
OS:Building,
  {cedb35b1-c520-4f63-be63-ff912425223c}, !- Handle
  Building 1,                             !- Name
  ,                                       !- Building Sector Type
  ,                                       !- North Axis {deg}
  ,                                       !- Nominal Floor to Floor Height {m}
  ,                                       !- Space Type Name
  ,                                       !- Default Construction Set Name
  ,                                       !- Default Schedule Set Name
  ,                                       !- Standards Number of Stories
  ,                                       !- Standards Number of Above Ground Stories
  Edificio NUEVO-Residencial-Unifamiliar, !- Standards Building Type
  ,                                       !- Standards Number of Living Units
  ,                                       !- Relocatable
  ;                                       !- Nominal Floor to Ceiling Height {m}

OS:Facility,
  {f8eb8a49-e8ae-4ded-bb87-44e618183929}; !- Handle

OS:DefaultScheduleSet,
  {666b76f8-1499-4f6b-bab2-aa92bb581914}, !- Handle
  USO RESIDENCIAL,                        !- Name
  ,                                       !- Hours of Operation Schedule Name
  {29bc692c-dd84-41c8-801a-f4f7dbae75a4}, !- Number of People Schedule Name
  ,                                       !- People Activity Level Schedule Name
  {7fb12c0d-d695-4c4b-bb5b-7a3499a5effa}, !- Lighting Schedule Name
  {268a7b62-fd66-4089-8ee3-8c0578904d60}, !- Electric Equipment Schedule Name
  ,                                       !- Gas Equipment Schedule Name
  ,                                       !- Hot Water Equipment Schedule Name
  ,                                       !- Infiltration Schedule Name
  ,                                       !- Steam Equipment Schedule Name
  ;                                       !- Other Equipment Schedule Name

OS:Schedule:Constant,
  {554de674-3b93-4600-b7c8-975dfa0494d8}, !- Handle
  Always On Discrete,                     !- Name
  {31dc605f-656d-4880-b7ff-c9597883d469}, !- Schedule Type Limits Name
  1;                                      !- Value

OS:ScheduleTypeLimits,
  {31dc605f-656d-4880-b7ff-c9597883d469}, !- Handle
  OnOff,                                  !- Name
  0,                                      !- Lower Limit Value {BasedOnField A4}
  1,                                      !- Upper Limit Value {BasedOnField A4}
  Discrete,                               !- Numeric Type
  Availability;                           !- Unit Type

OS:ScheduleTypeLimits,
  {b82e12ff-4ef7-4889-b77b-83420a2d2709}, !- Handle
  Fractional,                             !- Name
  0,                                      !- Lower Limit Value {BasedOnField A4}
  1,                                      !- Upper Limit Value {BasedOnField A4}
  Continuous;                             !- Numeric Type

OS:ScheduleTypeLimits,
  {5f22049f-6990-4d48-b9bb-3655d54f711f}, !- Handle
  ActivityLevel,                          !- Name
  0,                                      !- Lower Limit Value {BasedOnField A4}
  ,                                       !- Upper Limit Value {BasedOnField A4}
  Continuous,                             !- Numeric Type
  ActivityLevel;                          !- Unit Type

OS:ScheduleTypeLimits,
  {1a544272-99fd-4370-b471-d451ea27e661}, !- Handle
  OnOff,                                  !- Name
  0,                                      !- Lower Limit Value {BasedOnField A4}
  1,                                      !- Upper Limit Value {BasedOnField A4}
  Discrete,                               !- Numeric Type
  Availability;                           !- Unit Type

OS:ScheduleTypeLimits,
  {968d07c9-e6d4-4a0b-8aff-7d54548f02ca}, !- Handle
  Capacity,                               !- Name
  0,                                      !- Lower Limit Value {BasedOnField A4}
  ,                                       !- Upper Limit Value {BasedOnField A4}
  Continuous,                             !- Numeric Type
  Capacity;                               !- Unit Type

OS:ScheduleTypeLimits,
  {02ad4ed5-e010-4bfd-9c02-bd9328643160}, !- Handle
  ClothingInsulation,                     !- Name
  0,                                      !- Lower Limit Value {BasedOnField A4}
  ,                                       !- Upper Limit Value {BasedOnField A4}
  Continuous,                             !- Numeric Type
  ClothingInsulation;                     !- Unit Type

OS:ScheduleTypeLimits,
  {a61cf06e-b7bd-4369-b678-930647c9f484}, !- Handle
  ControlMode,                            !- Name
  0,                                      !- Lower Limit Value {BasedOnField A4}
  1,                                      !- Upper Limit Value {BasedOnField A4}
  Discrete,                               !- Numeric Type
  ControlMode;                            !- Unit Type

OS:ScheduleTypeLimits,
  {c108381a-1553-4c98-b44c-1625247625d3}, !- Handle
  Dimensionless,                          !- Name
  0,                                      !- Lower Limit Value {BasedOnField A4}
  1,                                      !- Upper Limit Value {BasedOnField A4}
  Continuous,                             !- Numeric Type
  Dimensionless;                          !- Unit Type

OS:ScheduleTypeLimits,
  {ace72e20-476e-4b04-8ddb-fabc7e355654}, !- Handle
  LinearPowerDensity,                     !- Name
  0,                                      !- Lower Limit Value {BasedOnField A4}
  ,                                       !- Upper Limit Value {BasedOnField A4}
  Continuous,                             !- Numeric Type
  LinearPowerDensity;                     !- Unit Type

OS:ScheduleTypeLimits,
  {4c4298da-83e6-4da7-a03e-8f7023eeea3f}, !- Handle
  MassFlowRate,                           !- Name
  ,                                       !- Lower Limit Value {BasedOnField A4}
  ,                                       !- Upper Limit Value {BasedOnField A4}
  Continuous,                             !- Numeric Type
  MassFlowRate;                           !- Unit Type

OS:ScheduleTypeLimits,
  {0f84ff14-9b1c-4bd9-82be-b46ca1cb4dd1}, !- Handle
  Percent,                                !- Name
  0,                                      !- Lower Limit Value {BasedOnField A4}
  100,                                    !- Upper Limit Value {BasedOnField A4}
  Continuous,                             !- Numeric Type
  Percent;                                !- Unit Type

OS:ScheduleTypeLimits,
  {5627958d-3ab5-49c5-9f34-e71001714885}, !- Handle
  Pressure,                               !- Name
  ,                                       !- Lower Limit Value {BasedOnField A4}
  ,                                       !- Upper Limit Value {BasedOnField A4}
  Continuous,                             !- Numeric Type
  Pressure;                               !- Unit Type

OS:ScheduleTypeLimits,
  {b4943bc0-9a8f-4a30-8de8-f5ad924f1fdc}, !- Handle
  RotationsPerMinute,                     !- Name
  ,                                       !- Lower Limit Value {BasedOnField A4}
  ,                                       !- Upper Limit Value {BasedOnField A4}
  Continuous,                             !- Numeric Type
  RotationsPerMinute;                     !- Unit Type

OS:ScheduleTypeLimits,
  {de3ca2cd-59b1-488e-957c-fb4d835b0175}, !- Handle
  Temperature,                            !- Name
  ,                                       !- Lower Limit Value {BasedOnField A4}
  ,                                       !- Upper Limit Value {BasedOnField A4}
  Continuous,                             !- Numeric Type
  Temperature;                            !- Unit Type

OS:ScheduleTypeLimits,
  {cc7c84a9-a0e7-4d48-a4c7-0cc2812927ea}, !- Handle
  Velocity,                               !- Name
  0,                                      !- Lower Limit Value {BasedOnField A4}
  ,                                       !- Upper Limit Value {BasedOnField A4}
  Continuous,                             !- Numeric Type
  Velocity;                               !- Unit Type

OS:ScheduleTypeLimits,
  {79f06066-aa15-45e3-b3e8-2aa1bbd5609c}, !- Handle
  VolumetricFlowRate,                     !- Name
  0,                                      !- Lower Limit Value {BasedOnField A4}
  ,                                       !- Upper Limit Value {BasedOnField A4}
  Continuous,                             !- Numeric Type
  VolumetricFlowRate;                     !- Unit Type

OS:Schedule:Ruleset,
  {962ea1e4-8328-4167-a37e-dcbddfadba47}, !- Handle
  Consigna_Refrigeracion_Residencial,     !- Name
  {de3ca2cd-59b1-488e-957c-fb4d835b0175}, !- Schedule Type Limits Name
  {a05230e0-11d5-498b-8783-55c92ebf8d66}; !- Default Day Schedule Name

OS:Schedule:Day,
  {a05230e0-11d5-498b-8783-55c92ebf8d66}, !- Handle
  Schedule Day 2,                         !- Name
  {de3ca2cd-59b1-488e-957c-fb4d835b0175}, !- Schedule Type Limits Name
  ,                                       !- Interpolate to Timestep
  24,                                     !- Hour 1
  0,                                      !- Minute 1
  23.5;                                   !- Value Until Time 1

OS:Schedule:Day,
  {62ba7799-be11-49f8-ac6b-b427fd51a261}, !- Handle
  Schedule Day 3,                         !- Name
  {de3ca2cd-59b1-488e-957c-fb4d835b0175}, !- Schedule Type Limits Name
  ,                                       !- Interpolate to Timestep
  24,                                     !- Hour 1
  0,                                      !- Minute 1
  23.5;                                   !- Value Until Time 1

OS:Schedule:Rule,
  {10aeda29-0897-4d4e-9051-e74bd4e60083}, !- Handle
  Enero_Mayo_Refrigeracion,               !- Name
  {962ea1e4-8328-4167-a37e-dcbddfadba47}, !- Schedule Ruleset Name
  2,                                      !- Rule Order
  {8da8f8fb-92a7-4436-bec3-a9e6a1affe6c}, !- Day Schedule Name
  Yes,                                    !- Apply Sunday
  Yes,                                    !- Apply Monday
  Yes,                                    !- Apply Tuesday
  Yes,                                    !- Apply Wednesday
  Yes,                                    !- Apply Thursday
  Yes,                                    !- Apply Friday
  Yes,                                    !- Apply Saturday
  ,                                       !- Apply Holiday
  DateRange,                              !- Date Specification Type
  1,                                      !- Start Month
  1,                                      !- Start Day
  5,                                      !- End Month
  31;                                     !- End Day

OS:Schedule:Day,
  {8da8f8fb-92a7-4436-bec3-a9e6a1affe6c}, !- Handle
  Schedule Day 4,                         !- Name
  {de3ca2cd-59b1-488e-957c-fb4d835b0175}, !- Schedule Type Limits Name
  ,                                       !- Interpolate to Timestep
  24,                                     !- Hour 1
  0,                                      !- Minute 1
  35;                                     !- Value Until Time 1

OS:Schedule:Day,
  {d2c53983-f51c-4efc-8ff5-0805925b2a0b}, !- Handle
  Schedule Day 5,                         !- Name
  {de3ca2cd-59b1-488e-957c-fb4d835b0175}, !- Schedule Type Limits Name
  ,                                       !- Interpolate to Timestep
  24,                                     !- Hour 1
  0,                                      !- Minute 1
  23.5;                                   !- Value Until Time 1

OS:Schedule:Rule,
  {69a90a02-ec13-4eeb-946f-a10a666c7b61}, !- Handle
  Junio_Septiembre_Refrigeracion,         !- Name
  {962ea1e4-8328-4167-a37e-dcbddfadba47}, !- Schedule Ruleset Name
  1,                                      !- Rule Order
  {551dd542-d07a-470f-87be-8c43895020bc}, !- Day Schedule Name
  Yes,                                    !- Apply Sunday
  Yes,                                    !- Apply Monday
  Yes,                                    !- Apply Tuesday
  Yes,                                    !- Apply Wednesday
  Yes,                                    !- Apply Thursday
  Yes,                                    !- Apply Friday
  Yes,                                    !- Apply Saturday
  ,                                       !- Apply Holiday
  DateRange,                              !- Date Specification Type
  6,                                      !- Start Month
  1,                                      !- Start Day
  9,                                      !- End Month
  30;                                     !- End Day

OS:Schedule:Day,
  {551dd542-d07a-470f-87be-8c43895020bc}, !- Handle
  Schedule Day 6,                         !- Name
  {de3ca2cd-59b1-488e-957c-fb4d835b0175}, !- Schedule Type Limits Name
  ,                                       !- Interpolate to Timestep
  7,                                      !- Hour 1
  0,                                      !- Minute 1
  27,                                     !- Value Until Time 1
  16,                                     !- Hour 2
  0,                                      !- Minute 2
  35,                                     !- Value Until Time 2
  23,                                     !- Hour 3
  0,                                      !- Minute 3
  25,                                     !- Value Until Time 3
  24,                                     !- Hour 4
  0,                                      !- Minute 4
  27;                                     !- Value Until Time 4

OS:Schedule:Day,
  {349616c4-2cc3-4818-adc6-3e4c4e93a186}, !- Handle
  Schedule Day 7,                         !- Name
  {de3ca2cd-59b1-488e-957c-fb4d835b0175}, !- Schedule Type Limits Name
  ,                                       !- Interpolate to Timestep
  24,                                     !- Hour 1
  0,                                      !- Minute 1
  23.5;                                   !- Value Until Time 1

OS:Schedule:Rule,
  {073e60be-b0b8-4962-85e8-1f6359e90f04}, !- Handle
  Octubre_Diciembre_Refrigeracion,        !- Name
  {962ea1e4-8328-4167-a37e-dcbddfadba47}, !- Schedule Ruleset Name
  0,                                      !- Rule Order
  {d28a7de9-635f-4625-ba9a-db11c048e25b}, !- Day Schedule Name
  Yes,                                    !- Apply Sunday
  Yes,                                    !- Apply Monday
  Yes,                                    !- Apply Tuesday
  Yes,                                    !- Apply Wednesday
  Yes,                                    !- Apply Thursday
  Yes,                                    !- Apply Friday
  Yes,                                    !- Apply Saturday
  ,                                       !- Apply Holiday
  DateRange,                              !- Date Specification Type
  10,                                     !- Start Month
  1,                                      !- Start Day
  12,                                     !- End Month
  31;                                     !- End Day

OS:Schedule:Day,
  {d28a7de9-635f-4625-ba9a-db11c048e25b}, !- Handle
  Schedule Day 8,                         !- Name
  {de3ca2cd-59b1-488e-957c-fb4d835b0175}, !- Schedule Type Limits Name
  ,                                       !- Interpolate to Timestep
  24,                                     !- Hour 1
  0,                                      !- Minute 1
  35;                                     !- Value Until Time 1

OS:Schedule:Ruleset,
  {be29c79d-ddfd-4ed9-b6e4-ca87bb737bb0}, !- Handle
  Consigna_Calefaccion_Residencial,       !- Name
  {de3ca2cd-59b1-488e-957c-fb4d835b0175}, !- Schedule Type Limits Name
  {8a5de351-1b72-4d59-a986-5f1394ea41f0}; !- Default Day Schedule Name

OS:Schedule:Day,
  {8a5de351-1b72-4d59-a986-5f1394ea41f0}, !- Handle
  Schedule Day 9,                         !- Name
  {de3ca2cd-59b1-488e-957c-fb4d835b0175}, !- Schedule Type Limits Name
  ,                                       !- Interpolate to Timestep
  24,                                     !- Hour 1
  0,                                      !- Minute 1
  23.5;                                   !- Value Until Time 1

OS:Schedule:Day,
  {4d59dd37-9607-4fbe-a17c-936703100b36}, !- Handle
  Schedule Day 10,                        !- Name
  {de3ca2cd-59b1-488e-957c-fb4d835b0175}, !- Schedule Type Limits Name
  ,                                       !- Interpolate to Timestep
  24,                                     !- Hour 1
  0,                                      !- Minute 1
  23.5;                                   !- Value Until Time 1

OS:Schedule:Rule,
  {428f1d45-aba2-46fa-9150-9f385c0a1be1}, !- Handle
  Enero_Mayo_Calefaccion,                 !- Name
  {be29c79d-ddfd-4ed9-b6e4-ca87bb737bb0}, !- Schedule Ruleset Name
  2,                                      !- Rule Order
  {d092f6cd-a25f-4f6b-ae79-dcaa0f4e7ca4}, !- Day Schedule Name
  Yes,                                    !- Apply Sunday
  Yes,                                    !- Apply Monday
  Yes,                                    !- Apply Tuesday
  Yes,                                    !- Apply Wednesday
  Yes,                                    !- Apply Thursday
  Yes,                                    !- Apply Friday
  Yes,                                    !- Apply Saturday
  ,                                       !- Apply Holiday
  DateRange,                              !- Date Specification Type
  1,                                      !- Start Month
  1,                                      !- Start Day
  5,                                      !- End Month
  31;                                     !- End Day

OS:Schedule:Day,
  {d092f6cd-a25f-4f6b-ae79-dcaa0f4e7ca4}, !- Handle
  Schedule Day 11,                        !- Name
  {de3ca2cd-59b1-488e-957c-fb4d835b0175}, !- Schedule Type Limits Name
  ,                                       !- Interpolate to Timestep
  8,                                      !- Hour 1
  0,                                      !- Minute 1
  17,                                     !- Value Until Time 1
  23,                                     !- Hour 2
  0,                                      !- Minute 2
  20,                                     !- Value Until Time 2
  24,                                     !- Hour 3
  0,                                      !- Minute 3
  17;                                     !- Value Until Time 3

OS:Schedule:Day,
  {bf921f88-bcfe-412e-bde8-7e13e8e2635d}, !- Handle
  Schedule Day 12,                        !- Name
  {de3ca2cd-59b1-488e-957c-fb4d835b0175}, !- Schedule Type Limits Name
  ,                                       !- Interpolate to Timestep
  24,                                     !- Hour 1
  0,                                      !- Minute 1
  23.5;                                   !- Value Until Time 1

OS:Schedule:Rule,
  {61d12874-0d8e-4054-8975-e0924ffe7abd}, !- Handle
  Junio_Septiembre_Calefaccion,           !- Name
  {be29c79d-ddfd-4ed9-b6e4-ca87bb737bb0}, !- Schedule Ruleset Name
  1,                                      !- Rule Order
  {79efb487-251c-46f8-ae69-5da75323194e}, !- Day Schedule Name
  Yes,                                    !- Apply Sunday
  Yes,                                    !- Apply Monday
  Yes,                                    !- Apply Tuesday
  Yes,                                    !- Apply Wednesday
  Yes,                                    !- Apply Thursday
  Yes,                                    !- Apply Friday
  Yes,                                    !- Apply Saturday
  ,                                       !- Apply Holiday
  DateRange,                              !- Date Specification Type
  6,                                      !- Start Month
  1,                                      !- Start Day
  9,                                      !- End Month
  30;                                     !- End Day

OS:Schedule:Day,
  {79efb487-251c-46f8-ae69-5da75323194e}, !- Handle
  Schedule Day 13,                        !- Name
  {de3ca2cd-59b1-488e-957c-fb4d835b0175}, !- Schedule Type Limits Name
  ,                                       !- Interpolate to Timestep
  24,                                     !- Hour 1
  0,                                      !- Minute 1
  0;                                      !- Value Until Time 1

OS:Schedule:Day,
  {c7bed225-d37d-458f-8afe-1fb3626cfde3}, !- Handle
  Schedule Day 14,                        !- Name
  {de3ca2cd-59b1-488e-957c-fb4d835b0175}, !- Schedule Type Limits Name
  ,                                       !- Interpolate to Timestep
  24,                                     !- Hour 1
  0,                                      !- Minute 1
  23.5;                                   !- Value Until Time 1

OS:Schedule:Rule,
  {2791f343-0f39-4aea-8793-4e74ececd3bc}, !- Handle
  Octubre_Diciembre_Calefaccion,          !- Name
  {be29c79d-ddfd-4ed9-b6e4-ca87bb737bb0}, !- Schedule Ruleset Name
  0,                                      !- Rule Order
  {cf7b6cba-a659-45b2-9ded-25fad35dd94b}, !- Day Schedule Name
  Yes,                                    !- Apply Sunday
  Yes,                                    !- Apply Monday
  Yes,                                    !- Apply Tuesday
  Yes,                                    !- Apply Wednesday
  Yes,                                    !- Apply Thursday
  Yes,                                    !- Apply Friday
  Yes,                                    !- Apply Saturday
  ,                                       !- Apply Holiday
  DateRange,                              !- Date Specification Type
  10,                                     !- Start Month
  1,                                      !- Start Day
  12,                                     !- End Month
  31;                                     !- End Day

OS:Schedule:Day,
  {cf7b6cba-a659-45b2-9ded-25fad35dd94b}, !- Handle
  Schedule Day 15,                        !- Name
  {de3ca2cd-59b1-488e-957c-fb4d835b0175}, !- Schedule Type Limits Name
  ,                                       !- Interpolate to Timestep
  7,                                      !- Hour 1
  0,                                      !- Minute 1
  17,                                     !- Value Until Time 1
  23,                                     !- Hour 2
  0,                                      !- Minute 2
  20,                                     !- Value Until Time 2
  24,                                     !- Hour 3
  0,                                      !- Minute 3
  17;                                     !- Value Until Time 3

OS:Schedule:Ruleset,
  {29bc692c-dd84-41c8-801a-f4f7dbae75a4}, !- Handle
  Ocupacion_Personas_Residencial,         !- Name
  {b82e12ff-4ef7-4889-b77b-83420a2d2709}, !- Schedule Type Limits Name
  {646a000a-8d65-4efc-b581-cf177c674d0f}; !- Default Day Schedule Name

OS:Schedule:Day,
  {646a000a-8d65-4efc-b581-cf177c674d0f}, !- Handle
  Schedule Day 16,                        !- Name
  {b82e12ff-4ef7-4889-b77b-83420a2d2709}, !- Schedule Type Limits Name
  ,                                       !- Interpolate to Timestep
  24,                                     !- Hour 1
  0,                                      !- Minute 1
  0.3;                                    !- Value Until Time 1

OS:Schedule:Day,
  {e2b21604-7b4a-4bec-9568-e092e36a1154}, !- Handle
  Schedule Day 17,                        !- Name
  {b82e12ff-4ef7-4889-b77b-83420a2d2709}, !- Schedule Type Limits Name
  ,                                       !- Interpolate to Timestep
  24,                                     !- Hour 1
  0,                                      !- Minute 1
  0.3;                                    !- Value Until Time 1

OS:Schedule:Rule,
  {c47afbad-7996-4597-81b2-a1937fea9ae6}, !- Handle
  Laboral,                                !- Name
  {29bc692c-dd84-41c8-801a-f4f7dbae75a4}, !- Schedule Ruleset Name
  1,                                      !- Rule Order
  {f83d8cec-1eb4-4526-b0c6-e2b874a15f7a}, !- Day Schedule Name
  ,                                       !- Apply Sunday
  Yes,                                    !- Apply Monday
  Yes,                                    !- Apply Tuesday
  Yes,                                    !- Apply Wednesday
  Yes,                                    !- Apply Thursday
  Yes;                                    !- Apply Friday

OS:Schedule:Day,
  {f83d8cec-1eb4-4526-b0c6-e2b874a15f7a}, !- Handle
  Schedule Day 18,                        !- Name
  {b82e12ff-4ef7-4889-b77b-83420a2d2709}, !- Schedule Type Limits Name
  ,                                       !- Interpolate to Timestep
  8,                                      !- Hour 1
  0,                                      !- Minute 1
  1,                                      !- Value Until Time 1
  16,                                     !- Hour 2
  0,                                      !- Minute 2
  0.25,                                   !- Value Until Time 2
  23,                                     !- Hour 3
  0,                                      !- Minute 3
  0.5,                                    !- Value Until Time 3
  24,                                     !- Hour 4
  0,                                      !- Minute 4
  1;                                      !- Value Until Time 4

OS:Schedule:Day,
  {70d89276-b8d2-40b0-9a04-c107285bf8cc}, !- Handle
  Schedule Day 19,                        !- Name
  {b82e12ff-4ef7-4889-b77b-83420a2d2709}, !- Schedule Type Limits Name
  ,                                       !- Interpolate to Timestep
  24,                                     !- Hour 1
  0,                                      !- Minute 1
  0.3;                                    !- Value Until Time 1

OS:Schedule:Rule,
  {04b9fcbb-b800-4b91-bd48-99da51e6bece}, !- Handle
  sabados y festivos,                     !- Name
  {29bc692c-dd84-41c8-801a-f4f7dbae75a4}, !- Schedule Ruleset Name
  0,                                      !- Rule Order
  {04e72950-d716-450e-b0ed-8078827b2177}, !- Day Schedule Name
  Yes,                                    !- Apply Sunday
  ,                                       !- Apply Monday
  ,                                       !- Apply Tuesday
  ,                                       !- Apply Wednesday
  ,                                       !- Apply Thursday
  ,                                       !- Apply Friday
  Yes;                                    !- Apply Saturday

OS:Schedule:Day,
  {04e72950-d716-450e-b0ed-8078827b2177}, !- Handle
  Schedule Day 20,                        !- Name
  {b82e12ff-4ef7-4889-b77b-83420a2d2709}, !- Schedule Type Limits Name
  ,                                       !- Interpolate to Timestep
  24,                                     !- Hour 1